
#======================================================================
# CRYSTAL DATA
#----------------------------------------------------------------------
data_VESTA_phase_1

_chemical_name_common                  'Ag  P  O '
_cell_length_a                         6.097168
_cell_length_b                         6.097168
_cell_length_c                         36.583012
_cell_angle_alpha                      90.000000
_cell_angle_beta                       90.000000
_cell_angle_gamma                      90.000000
_cell_volume                           1359.990397
_space_group_name_H-M_alt              'P 1'
_space_group_IT_number                 1

loop_
_space_group_symop_operation_xyz
   'x, y, z'

loop_
   _atom_site_label
   _atom_site_occupancy
   _atom_site_fract_x
   _atom_site_fract_y
   _atom_site_fract_z
   _atom_site_adp_type
   _atom_site_U_iso_or_equiv
   _atom_site_type_symbol
   Ag1        1.0     0.500000     0.250000     0.380208    Uiso  ? Ag
   Ag2        1.0     0.500000     0.750000     0.380208    Uiso  ? Ag
   Ag3        1.0     0.000000     0.500000     0.338542    Uiso  ? Ag
   Ag4        1.0     0.250000     0.000000     0.296875    Uiso  ? Ag
   Ag5        1.0     0.750000     0.000000     0.296875    Uiso  ? Ag
   Ag6        1.0     0.500000     0.250000     0.546875    Uiso  ? Ag
   Ag7        1.0     0.500000     0.750000     0.546875    Uiso  ? Ag
   Ag8        1.0     0.000000     0.500000     0.505208    Uiso  ? Ag
   Ag9        1.0     0.250000     0.000000     0.463542    Uiso  ? Ag
   Ag10       1.0     0.000000     0.500000     0.421875    Uiso  ? Ag
   Ag11       1.0     0.750000     0.000000     0.463542    Uiso  ? Ag
   Ag12       1.0     0.500000     0.250000     0.713542    Uiso  ? Ag
   Ag13       1.0     0.500000     0.750000     0.713542    Uiso  ? Ag
   Ag14       1.0     0.000000     0.500000     0.671875    Uiso  ? Ag
   Ag15       1.0     0.250000     0.000000     0.630208    Uiso  ? Ag
   Ag16       1.0     0.000000     0.500000     0.588542    Uiso  ? Ag
   Ag17       1.0     0.750000     0.000000     0.630208    Uiso  ? Ag
   P1         1.0     0.500000     0.500000     0.296875    Uiso  ? P
   P2         1.0     0.000000     0.000000     0.380208    Uiso  ? P
   P3         1.0     0.500000     0.500000     0.463542    Uiso  ? P
   P4         1.0     0.000000     0.000000     0.546875    Uiso  ? P
   P5         1.0     0.500000     0.500000     0.630208    Uiso  ? P
   P6         1.0     0.000000     0.000000     0.713542    Uiso  ? P
   O1         1.0     0.851563     0.851563     0.355469    Uiso  ? O
   O2         1.0     0.351563     0.648437     0.321615    Uiso  ? O
   O3         1.0     0.648437     0.648437     0.272135    Uiso  ? O
   O4         1.0     0.648437     0.351563     0.321615    Uiso  ? O
   O5         1.0     0.351563     0.351563     0.272135    Uiso  ? O
   O6         1.0     0.148437     0.851563     0.404948    Uiso  ? O
   O7         1.0     0.851563     0.148437     0.404948    Uiso  ? O
   O8         1.0     0.148437     0.148437     0.355469    Uiso  ? O
   O9         1.0     0.851563     0.851563     0.522135    Uiso  ? O
   O10        1.0     0.351563     0.648437     0.488281    Uiso  ? O
   O11        1.0     0.648437     0.648437     0.438802    Uiso  ? O
   O12        1.0     0.648437     0.351563     0.488281    Uiso  ? O
   O13        1.0     0.351563     0.351563     0.438802    Uiso  ? O
   O14        1.0     0.148437     0.851563     0.571615    Uiso  ? O
   O15        1.0     0.851563     0.148437     0.571615    Uiso  ? O
   O16        1.0     0.148437     0.148437     0.522135    Uiso  ? O
   O17        1.0     0.851563     0.851563     0.688802    Uiso  ? O
   O18        1.0     0.351563     0.648437     0.654948    Uiso  ? O
   O19        1.0     0.648437     0.648437     0.605469    Uiso  ? O
   O20        1.0     0.648437     0.351563     0.654948    Uiso  ? O
   O21        1.0     0.351563     0.351563     0.605469    Uiso  ? O
   O22        1.0     0.148437     0.851563     0.738281    Uiso  ? O
   O23        1.0     0.851563     0.148437     0.738281    Uiso  ? O
   O24        1.0     0.148437     0.148437     0.688802    Uiso  ? O
