
##########################################################################
#               Crystallographic Information Format file
#               Produced by PyCifRW module
#
#  This is a CIF file.  CIF has been adopted by the International
#  Union of Crystallography as the standard for data archiving and
#  transmission.
#
#  For information on this file format, follow the CIF links at
#  http://www.iucr.org
##########################################################################

data_0

loop_
  _atom_site_label
  _atom_site_fract_x
  _atom_site_fract_y
  _atom_site_fract_z
  _atom_site_type_symbol
         Sn1       0.49999999999999994           0.19882567773767562           0.2775527736571715 Sn       
         Sn2       1.4906814291778837e-16        0.6988256777376829  0.2775527736571715 Sn       
         Sn3       0.49999999999999983           0.6988256777376829  0.36846186456625757          Sn       
         Sn4       1.9789362996876533e-16        0.19882567773767562           0.36846186456625757          Sn       
         Sn5       0.4999999999999996  0.1988256777376758  0.45937095547537027           Sn       
         Sn6       2.4671911701973123e-16        0.6988256777376829  0.45937095547537027          Sn       
         Sn7       0.49999999999999983           0.6988256777376829  0.5502800463844563 Sn       
         Sn8       2.9554460407073583e-16        0.1988256777376758  0.5502800463844563 Sn       
         Sn9       0.4999999999999996  0.1988256777376758  0.6411891372935423  Sn       
         Sn10      3.443700911217049e-16         0.6988256777376829  0.6411891372935423 Sn       
         Sn11      0.49999999999999983           0.6988256777376829  0.7320982282026284 Sn       
         Sn12      3.9319557817267867e-16        0.1988256777376758  0.7320982282026284 Sn       
         O1        0.4999999999999998  0.8922493777376677  0.2775527736571715  O        
         O2        0.4999999999999999  0.5054019777376836  0.2775527736571715  O        
         O3        0.4999999999999999  0.392249377737675   0.36846186456625757           O        
         O4        0.49999999999999967           0.005401977737676367          0.36846186456625757          O        
         O5        1.6795615563718933e-16        0.19882567773767562           0.31272071911172455          O        
         O6        1.7900561724934899e-16        0.6988256777376829  0.33329391911173123          O        
         O7        0.4999999999999998  0.8922493777376677  0.45937095547537027           O        
         O8        0.4999999999999999  0.5054019777376836  0.45937095547537027           O        
         O9        2.1678164268817066e-16        0.6988256777376829  0.4036298100208106 O        
         O10       2.278311043003537e-16         0.1988256777376758  0.4242030100208173 O        
         O11       0.4999999999999999  0.392249377737675   0.5502800463844563  O        
         O12       0.49999999999999967           0.005401977737676367          0.5502800463844563 O        
         O13       2.6560712973914437e-16        0.1988256777376758  0.49453890092989666          O        
         O14       2.766565913513226e-16         0.6988256777376829  0.5151121009299033 O        
         O15       0.4999999999999998  0.8922493777376677  0.6411891372935423  O        
         O16       0.4999999999999999  0.5054019777376836  0.6411891372935423  O        
         O17       3.1443261679014434e-16        0.6988256777376829  0.5854479918389827 O        
         O18       3.254820784022964e-16         0.1988256777376758  0.6060211918389894 O        
         O19       0.4999999999999999  0.392249377737675   0.7320982282026284  O        
         O20       0.49999999999999967           0.005401977737676367          0.7320982282026284 O        
         O21       3.632581038411181e-16         0.1988256777376758  0.6763570827480955 O        
         O22       3.743075654532655e-16         0.6988256777376829  0.6969302827480754 O
_cell_angle_alpha                       90.0
_cell_angle_beta                        90.0
_cell_angle_gamma                       90.0
_cell_length_a                          3.24476193
_cell_length_b                          6.8255741825883
_cell_length_c                          37.540658004236
loop_
  _symmetry_equiv_pos_as_xyz
         'x, y, z' 
_symmetry_int_tables_number             1
_symmetry_space_group_name_H-M          'P 1'
