
#======================================================================
# CRYSTAL DATA
#----------------------------------------------------------------------
data_VESTA_phase_1

_chemical_name_common                  'Ag  P  O '
_cell_length_a                         6.097168
_cell_length_b                         8.622699
_cell_length_c                         34.490795
_cell_angle_alpha                      90.000000
_cell_angle_beta                       90.000000
_cell_angle_gamma                      90.000000
_cell_volume                           1813.320682
_space_group_name_H-M_alt              'P 1'
_space_group_IT_number                 1

loop_
_space_group_symop_operation_xyz
   'x, y, z'

loop_
   _atom_site_label
   _atom_site_occupancy
   _atom_site_fract_x
   _atom_site_fract_y
   _atom_site_fract_z
   _atom_site_adp_type
   _atom_site_U_iso_or_equiv
   _atom_site_type_symbol
   Ag1        1.0     0.750000     0.812500     0.414062    Uiso  ? Ag
   Ag2        1.0     0.250000     0.812500     0.414062    Uiso  ? Ag
   Ag3        1.0     0.500000     0.437500     0.382812    Uiso  ? Ag
   Ag4        1.0     0.000000     0.187500     0.382812    Uiso  ? Ag
   Ag5        1.0     0.500000     0.187500     0.445312    Uiso  ? Ag
   Ag6        1.0     0.000000     0.437500     0.445312    Uiso  ? Ag
   Ag7        1.0     0.750000     0.312500     0.539062    Uiso  ? Ag
   Ag8        1.0     0.250000     0.312500     0.539062    Uiso  ? Ag
   Ag9        1.0     0.500000     0.937500     0.507812    Uiso  ? Ag
   Ag10       1.0     0.000000     0.687500     0.507812    Uiso  ? Ag
   Ag11       1.0     0.500000     0.687500     0.570312    Uiso  ? Ag
   Ag12       1.0     0.000000     0.937500     0.570312    Uiso  ? Ag
   Ag13       1.0     0.750000     0.812500     0.664062    Uiso  ? Ag
   Ag14       1.0     0.250000     0.812500     0.664062    Uiso  ? Ag
   Ag15       1.0     0.500000     0.437500     0.632812    Uiso  ? Ag
   Ag16       1.0     0.000000     0.187500     0.632812    Uiso  ? Ag
   Ag17       1.0     0.500000     0.187500     0.695312    Uiso  ? Ag
   Ag18       1.0     0.000000     0.437500     0.695312    Uiso  ? Ag
   P1         1.0     0.500000     0.062500     0.351562    Uiso  ? P
   P2         1.0     0.000000     0.562500     0.351562    Uiso  ? P
   P3         1.0     0.500000     0.562500     0.476563    Uiso  ? P
   P4         1.0     0.000000     0.062500     0.476563    Uiso  ? P
   P5         1.0     0.500000     0.062500     0.601562    Uiso  ? P
   P6         1.0     0.000000     0.562500     0.601562    Uiso  ? P
   P7         1.0     0.500000     0.562500     0.726562    Uiso  ? P
   P8         1.0     0.000000     0.062500     0.726562    Uiso  ? P
   O1         1.0     0.351563     0.210937     0.351562    Uiso  ? O
   O2         1.0     0.351563     0.914063     0.351562    Uiso  ? O
   O3         1.0     0.851563     0.710937     0.351562    Uiso  ? O
   O4         1.0     0.851563     0.414063     0.351562    Uiso  ? O
   O5         1.0     0.148437     0.562500     0.388672    Uiso  ? O
   O6         1.0     0.351563     0.710937     0.476563    Uiso  ? O
   O7         1.0     0.351563     0.414063     0.476563    Uiso  ? O
   O8         1.0     0.648437     0.562500     0.439453    Uiso  ? O
   O9         1.0     0.648437     0.062500     0.388672    Uiso  ? O
   O10        1.0     0.148437     0.062500     0.439453    Uiso  ? O
   O11        1.0     0.851563     0.210937     0.476563    Uiso  ? O
   O12        1.0     0.851563     0.914063     0.476563    Uiso  ? O
   O13        1.0     0.148437     0.062500     0.513672    Uiso  ? O
   O14        1.0     0.351563     0.210937     0.601562    Uiso  ? O
   O15        1.0     0.351563     0.914063     0.601562    Uiso  ? O
   O16        1.0     0.648437     0.062500     0.564453    Uiso  ? O
   O17        1.0     0.648437     0.562500     0.513672    Uiso  ? O
   O18        1.0     0.148437     0.562500     0.564453    Uiso  ? O
   O19        1.0     0.851563     0.710937     0.601562    Uiso  ? O
   O20        1.0     0.851563     0.414063     0.601562    Uiso  ? O
   O21        1.0     0.148437     0.562500     0.638672    Uiso  ? O
   O22        1.0     0.351563     0.710937     0.726562    Uiso  ? O
   O23        1.0     0.351563     0.414063     0.726562    Uiso  ? O
   O24        1.0     0.648437     0.562500     0.689453    Uiso  ? O
   O25        1.0     0.648437     0.062500     0.638672    Uiso  ? O
   O26        1.0     0.148437     0.062500     0.689453    Uiso  ? O
   O27        1.0     0.851563     0.210937     0.726562    Uiso  ? O
   O28        1.0     0.851563     0.914063     0.726562    Uiso  ? O
